I"æ/Users/flatironschool/Desktop/flatiron/5%20-%20Week%205/rails-dynamic-request-readme-web-060517/app/assets/stylesheets/application.css?type=text/css&pipeline=self&id=d403af2d4a5980dfcbdd62b9a27234a0e60803e013b1f435aa30b0406034bc5f:ET