I"Ø/Users/flatironschool/Desktop/flatiron/5%20-%20Week%205/rails-dynamic-request-readme-web-060517/app/assets/stylesheets/application.css?type=text/css&id=0a845c3b4b0ef3ab95f17d06fc8f414a3f85c004791c626150a5a92fd8b7008a:ET