I"å/Users/flatironschool/Desktop/flatiron/5%20-%20Week%205/rails-dynamic-request-readme-web-060517/app/assets/javascripts/application.js?type=application/javascript&id=1f9747007d1818c9536ea090280f70c54d2f82cc50f68b6ef95ac1e9f966aad7:ET