I"ó/Users/flatironschool/Desktop/flatiron/5%20-%20Week%205/rails-dynamic-request-readme-web-060517/app/assets/javascripts/application.js?type=application/javascript&pipeline=self&id=9ad54caa83c3aed364cca7210a0acd7c9e390a415577a09d5511bda3e3d6da5b:ET